<?xml version="1.0" encoding="UTF-8"?>
<configuration xmlns:xsi="http://www.w3.org/2001/XMLSchema-instance" xsi:noNamespaceSchemaLocation="http://sumo.dlr.de/xsd/sumoConfiguration.xsd">
<!--
A full day of traffic with routes pre-computed using Dynamic User Assignment (DUA).
-->
	<input>
		<net-file value="network.net.xml" synonymes="n net" type="FILE" help="Load road network description from FILE"/>
		<route-files value="allroutes.rou.xml" synonymes="r routes" type="FILE" help="Load routes descriptions from FILE(s)"/>
		<additional-files value="trafficlightlogic.tll.xml,polygons.poly.xml,vtypes.add.xml" synonymes="a additional" type="FILE" help="Load further descriptions from FILE(s)"/>
	</input>
	<time>
		<step-length value="1.0" type="TIME" help="Defines the step duration"/>
	</time>

	<processing>
		<ignore-route-errors value="true"/>
		<scale value="1.00" type="FLOAT" help="Scale demand by the given factor (0..1)"/>
	</processing>

	<random_number>
		<seed value="23456" synonymes="srand" type="INT" help="Initialises the random number generator with the given value"/>
	</random_number>
</configuration>
