<?xml version="1.0" encoding="UTF-8"?>
<configuration xmlns:xsi="http://www.w3.org/2001/XMLSchema-instance" xsi:noNamespaceSchemaLocation="http://sumo.dlr.de/xsd/sumoConfiguration.xsd">
<!--
A short scenario with two hours of spawning vehicles, representing a part of a rush hour.
Uses ad-hoc routing on trips as input.
-->
	<input>
		<net-file value="network.net.xml" synonymes="n net" type="FILE" help="Load road network description from FILE"/>
		<route-files value="trips.trp.xml" synonymes="r routes" type="FILE" help="Load routes descriptions from FILE(s)"/>
		<additional-files value="trafficlightlogic.tll.xml,polygons.poly.xml,vtypes.add.xml" synonymes="a additional" type="FILE" help="Load further descriptions from FILE(s)"/>
	</input>

	<time>
		<step-length value="1.0" type="TIME" help="Defines the step duration"/>
	</time>

	<processing>
		<ignore-route-errors value="true"/>
		<scale value="1.00" type="FLOAT" help="Scale demand by the given factor (0..1)"/>
	</processing>

	<routing>
		<device.rerouting.probability value="1.0" type="FLOAT" help="The probability for a vehicle to have a &apos;rerouting&apos; device"/>
		<device.rerouting.adaptation-interval value="0" synonymes="device.routing.adaptation-interval" type="TIME" help="The interval for updating the edge weights"/>
		<routing-algorithm value="CHWrapper" type="STR" help="Select among routing algorithms [&apos;dijkstra&apos;, &apos;astar&apos;, &apos;CH&apos;, &apos;CHWrapper&apos;]"/>
	</routing>
</configuration>
